I
  --CCDC--080624    3D                              

 79 83  0  0  0  0  0  0  0  0999 V2000
    8.1564    2.6999    5.4320 Ru     0
    6.6115    2.0626    3.7947 Cl     0
   10.0605    3.7392    6.3292 Cl     0
    9.4507    0.9581    4.7836 N      0
    6.5365    4.8570    6.9824 N      0
    7.3415    5.5278    5.0917 N      0
   10.2752    0.5102    5.9578 C      0
   10.5972    1.3265    6.3934 H      0
   11.5200   -0.2989    5.5968 C      0
   12.0478   -0.4439    6.3854 H      0
   12.0390    0.1840    4.9490 H      0
   11.2563   -1.1453    5.2282 H      0
    9.3577   -0.1743    6.9638 C      0
    9.7301   -1.3679    7.5804 C      0
   10.5227   -1.7811    7.3228 H      0
    8.9553   -1.9574    8.5650 C      0
    9.2313   -2.7539    8.9576 H      0
    7.7938   -1.3764    8.9610 C      0
    7.2783   -1.7667    9.6295 H      0
    7.3829   -0.1965    8.3598 C      0
    6.5862    0.1973    8.6333 H      0
    8.1368    0.4173    7.3509 C      0
    7.6011    1.6648    6.8249 C      0
    6.8524    1.9861    7.2735 H      0
    8.7427   -0.2081    4.1673 C      0
    8.0899   -0.5476    4.7835 H      0
    9.3790   -0.8968    3.9627 H      0
    8.3052    0.0737    3.3604 H      0
   10.2893    1.5856    3.7329 C      0
   10.8728    2.2338    4.1337 H      0
    9.7244    2.0180    3.0886 H      0
   10.8135    0.9097    3.2965 H      0
    7.2010    4.4398    5.8852 C      0
    6.1903    6.2957    6.9715 C      0
    6.5988    6.7616    7.7179 H      0
    5.2296    6.4267    7.0022 H      0
    6.7709    6.7690    5.6394 C      0
    6.0796    7.1252    5.0598 H      0
    7.4552    7.4434    5.7723 H      0
    6.0316    4.0605    8.0587 C      0
    6.7727    3.9729    9.2384 C      0
    6.2455    3.1954   10.2658 C      0
    6.7198    3.1230   11.0625 H      0
    5.0393    2.5246   10.1425 C      0
    4.3270    2.6641    8.9639 C      0
    3.5082    2.2312    8.8798 H      0
    4.7972    3.4331    7.8961 C      0
    8.0673    4.6964    9.4001 C      0
    8.5129    4.3827   10.1902 H      0
    7.8995    5.6387    9.4803 H      0
    8.6222    4.5348    8.6337 H      0
    4.5138    1.6616   11.2763 C      0
    4.9691    1.8896   12.0904 H      0
    4.6676    0.7362   11.0722 H      0
    3.5716    1.8128   11.3842 H      0
    4.0364    3.5165    6.6138 C      0
    3.2190    3.0200    6.6931 H      0
    4.5666    3.1488    5.9024 H      0
    3.8355    4.4353    6.4202 H      0
    7.8174    5.5172    3.7302 C      0
    6.9263    5.1781    2.7127 C      0
    7.4055    5.1137    1.4176 C      0
    6.8372    4.8399    0.7340 H      0
    8.7134    5.4464    1.1176 C      0
    9.5583    5.8890    2.1237 C      0
   10.4250    6.1527    1.9159 H      0
    9.1192    5.9429    3.4454 C      0
    5.4711    4.9626    2.9736 C      0
    5.3568    4.5659    3.8395 H      0
    5.1094    4.3790    2.3028 H      0
    5.0134    5.8062    2.9443 H      0
    9.2238    5.3545   -0.3216 C      0
   10.1579    5.1380   -0.3174 H      0
    9.0911    6.1971   -0.7624 H      0
    8.7380    4.6700   -0.7892 H      0
   10.0324    6.5260    4.5026 C      0
    9.7229    6.2621    5.3731 H      0
   10.0252    7.4840    4.4386 H      0
   10.9254    6.2024    4.3690 H      0
  1  2  1
  1  3  1
  1  4  1
  1 23  1
  1 33  1
  4  7  1
  4 25  1
  4 29  1
  5 33  1
  5 34  1
  5 40  1
  6 33  1
  6 37  1
  6 60  1
  7  8  1
  7  9  1
  7 13  1
  9 10  1
  9 11  1
  9 12  1
 13 14  1
 13 22  1
 14 15  1
 14 16  1
 16 17  1
 16 18  1
 18 19  1
 18 20  1
 20 21  1
 20 22  1
 22 23  1
 23 24  1
 25 26  1
 25 27  1
 25 28  1
 29 30  1
 29 31  1
 29 32  1
 34 35  1
 34 36  1
 34 37  1
 37 38  1
 37 39  1
 40 41  1
 40 47  1
 41 42  1
 41 48  1
 42 43  1
 42 44  1
 44 45  1
 44 52  1
 45 46  1
 45 47  1
 47 56  1
 48 49  1
 48 50  1
 48 51  1
 52 53  1
 52 54  1
 52 55  1
 56 57  1
 56 58  1
 56 59  1
 60 61  1
 60 67  1
 61 62  1
 61 68  1
 62 63  1
 62 64  1
 64 65  1
 64 72  1
 65 66  1
 65 67  1
 67 76  1
 68 69  1
 68 70  1
 68 71  1
 72 73  1
 72 74  1
 72 75  1
 76 77  1
 76 78  1
 76 79  1
M  END
$$$$
